Version 4
SHEET 1 880 680
WIRE 128 -304 -112 -304
WIRE 224 -304 128 -304
WIRE 320 -304 224 -304
WIRE 560 -304 320 -304
WIRE 656 -304 560 -304
WIRE 656 -288 656 -304
WIRE 128 -256 128 -304
WIRE 320 -256 320 -304
WIRE 224 -240 176 -240
WIRE 272 -240 224 -240
WIRE -112 -224 -112 -304
WIRE 560 -176 560 -304
WIRE 432 -160 320 -160
WIRE 512 -160 432 -160
WIRE 128 -128 128 -160
WIRE 224 -128 224 -240
WIRE 224 -128 128 -128
WIRE 128 -96 128 -128
WIRE 320 -96 320 -160
WIRE -112 -48 -112 -144
WIRE 80 -16 48 -16
WIRE 400 -16 368 -16
WIRE 560 -16 560 -80
WIRE 608 -16 560 -16
WIRE 128 16 128 0
WIRE 224 16 128 16
WIRE 320 16 320 0
WIRE 320 16 224 16
WIRE 400 80 400 -16
WIRE 400 80 144 80
WIRE 48 96 48 -16
WIRE 400 96 400 80
WIRE 176 112 96 112
WIRE 144 160 144 80
WIRE 144 160 96 160
WIRE 176 192 176 112
WIRE 400 192 400 176
WIRE 400 192 176 192
WIRE -112 208 -112 -48
WIRE -32 208 -112 208
WIRE 224 208 224 16
WIRE -112 224 -112 208
WIRE 48 224 48 176
WIRE 400 224 400 192
WIRE 560 224 560 -16
WIRE -64 320 -64 304
WIRE -32 320 -32 208
WIRE -32 320 -64 320
WIRE 272 320 272 288
WIRE 272 320 -32 320
WIRE 448 320 272 320
WIRE 512 320 512 304
WIRE 512 320 448 320
WIRE -112 368 -112 320
WIRE 224 368 224 304
WIRE 224 368 -112 368
WIRE 336 368 224 368
WIRE 560 368 560 320
WIRE 560 368 336 368
WIRE 656 368 560 368
WIRE 656 384 656 368
FLAG 656 -208 0
FLAG 656 464 0
FLAG -112 -48 VDQ8
FLAG 224 16 VSQ12
FLAG 336 368 VSQ578
FLAG 608 -16 vo3
FLAG 448 320 VGQ578
FLAG 432 -160 vo2
FLAG 224 -304 VSQ34
FLAG 48 224 0
FLAG 400 224 0
FLAG 400 -16 Vdiff/2
FLAG 48 -16 -Vdiff/2
SYMBOL nmos -64 224 M0
SYMATTR InstName Q8
SYMATTR Value NMOS2
SYMBOL nmos 272 208 M0
SYMATTR InstName Q5
SYMATTR Value NMOS2
SYMBOL nmos 512 224 R0
SYMATTR InstName Q7
SYMATTR Value NMOS2
SYMBOL voltage 656 -304 R0
SYMATTR InstName VDD
SYMATTR Value 0.9
SYMBOL voltage 656 368 M0
SYMATTR InstName VSS
SYMATTR Value -0.9
SYMBOL nmos 80 -96 R0
SYMATTR InstName Q1
SYMATTR Value NMOS1
SYMBOL nmos 368 -96 M0
SYMATTR InstName Q2
SYMATTR Value NMOS1
SYMBOL pmos 176 -160 R180
SYMATTR InstName Q3
SYMATTR Value PMOS1
SYMBOL pmos 272 -160 M180
SYMATTR InstName Q4
SYMATTR Value PMOS1
SYMBOL current -112 -224 R0
SYMATTR InstName Iref
SYMATTR Value 200µ
SYMBOL pmos 512 -80 M180
SYMATTR InstName Q6
SYMATTR Value PMOS2
SYMBOL voltage 400 80 R0
WINDOW 123 24 124 Left 2
WINDOW 39 0 0 Left 0
SYMATTR Value2 AC 0.5
SYMATTR InstName Vi2
SYMATTR Value 0
SYMBOL e 48 80 M0
SYMATTR InstName Vi1
SYMATTR Value 1
TEXT -328 424 Left 2 !.model NMOS1 nmos level=1 VT0=0.4V KP=400u lambda=0.166 W=12.5 L=1
TEXT -328 456 Left 2 !.model NMOS2 nmos level=1 VT0=0.4V KP=400u lambda=0.166 W=25 L=1
TEXT -328 488 Left 2 !.model PMOS1 pmos level=1 VT0=-0.4V KP=100u lambda=0.166 W=50 L=1
TEXT -328 520 Left 2 !.model PMOS2 pmos level=1 VT0=-0.4V KP=100u lambda=0.166 W=100 L=1
TEXT -328 552 Left 2 !.ac dec 10 1 100k
