Version 4
SHEET 1 880 680
WIRE 128 -128 -112 -128
WIRE 224 -128 128 -128
WIRE 320 -128 224 -128
WIRE 560 -128 320 -128
WIRE 656 -128 560 -128
WIRE 656 -112 656 -128
WIRE 128 -80 128 -128
WIRE 320 -80 320 -128
WIRE 224 -64 176 -64
WIRE 272 -64 224 -64
WIRE -112 -48 -112 -128
WIRE 560 0 560 -128
WIRE 432 16 320 16
WIRE 512 16 432 16
WIRE 128 48 128 16
WIRE 224 48 224 -64
WIRE 224 48 128 48
WIRE 128 80 128 48
WIRE 320 80 320 16
WIRE -112 128 -112 32
WIRE 80 160 48 160
WIRE 400 160 368 160
WIRE 560 160 560 96
WIRE 608 160 560 160
WIRE 48 192 48 160
WIRE 128 192 128 176
WIRE 224 192 128 192
WIRE 320 192 320 176
WIRE 320 192 224 192
WIRE 400 192 400 160
WIRE -112 208 -112 128
WIRE -32 208 -112 208
WIRE 224 208 224 192
WIRE -112 224 -112 208
WIRE 560 224 560 160
WIRE -64 320 -64 304
WIRE -32 320 -32 208
WIRE -32 320 -64 320
WIRE 272 320 272 288
WIRE 272 320 -32 320
WIRE 336 320 272 320
WIRE 512 320 512 304
WIRE 512 320 336 320
WIRE -112 368 -112 320
WIRE 224 368 224 304
WIRE 224 368 -112 368
WIRE 336 368 224 368
WIRE 560 368 560 320
WIRE 560 368 336 368
WIRE 656 368 560 368
WIRE 656 384 656 368
FLAG 656 -32 0
FLAG 656 464 0
FLAG 48 272 0
FLAG 400 272 0
FLAG -112 128 VDQ8
FLAG 224 192 VSQ12
FLAG 336 368 VSQ578
FLAG 608 160 vo3
FLAG 128 48 vo1
FLAG 432 16 vo2
FLAG 224 -128 VSQ34
FLAG 48 160 vi1
FLAG 400 160 vi2
FLAG 336 320 VGQ578
SYMBOL nmos -64 224 M0
SYMATTR InstName Q8
SYMATTR Value NMOS2
SYMBOL nmos 272 208 M0
SYMATTR InstName Q5
SYMATTR Value NMOS2
SYMBOL nmos 512 224 R0
SYMATTR InstName Q7
SYMATTR Value NMOS2
SYMBOL voltage 656 -128 R0
SYMATTR InstName VDD
SYMATTR Value 0.9
SYMBOL voltage 656 368 M0
SYMATTR InstName VSS
SYMATTR Value -0.9
SYMBOL nmos 80 80 R0
SYMATTR InstName Q1
SYMATTR Value NMOS1
SYMBOL voltage 48 176 R0
WINDOW 123 24 124 Left 2
WINDOW 39 0 0 Left 0
SYMATTR Value2 AC 1
SYMATTR InstName VA
SYMATTR Value 0
SYMBOL nmos 368 80 M0
SYMATTR InstName Q2
SYMATTR Value NMOS1
SYMBOL pmos 176 16 R180
SYMATTR InstName Q3
SYMATTR Value PMOS1
SYMBOL pmos 272 16 M180
SYMATTR InstName Q4
SYMATTR Value PMOS1
SYMBOL current -112 -48 R0
SYMATTR InstName Iref
SYMATTR Value 200µ
SYMBOL pmos 512 96 M180
SYMATTR InstName Q6
SYMATTR Value PMOS2
SYMBOL voltage 400 176 R0
WINDOW 123 24 124 Left 2
WINDOW 39 0 0 Left 0
SYMATTR Value2 AC 1
SYMATTR InstName V1
SYMATTR Value 0
TEXT -328 424 Left 2 !.model NMOS1 nmos level=1 VT0=0.4V KP=400u lambda=0.166 W=12.5 L=1
TEXT -328 456 Left 2 !.model NMOS2 nmos level=1 VT0=0.4V KP=400u lambda=0.166 W=25 L=1
TEXT -328 488 Left 2 !.model PMOS1 pmos level=1 VT0=-0.4V KP=100u lambda=0.166 W=50 L=1
TEXT -328 520 Left 2 !.model PMOS2 pmos level=1 VT0=-0.4V KP=100u lambda=0.166 W=100 L=1
TEXT -328 552 Left 2 !.ac dec 10 1 100k
