Version 4
SHEET 1 888 680
WIRE 128 -560 48 -560
WIRE 240 -560 208 -560
WIRE 368 -560 240 -560
WIRE 512 -560 448 -560
WIRE 48 -480 48 -560
WIRE 240 -480 240 -560
WIRE 320 -480 240 -480
WIRE 512 -448 512 -560
WIRE 320 -416 240 -416
WIRE 48 -320 48 -400
WIRE 128 -320 48 -320
WIRE 240 -320 240 -416
WIRE 240 -320 208 -320
WIRE 368 -320 240 -320
WIRE 512 -320 448 -320
WIRE 512 -272 512 -320
FLAG 512 -272 0
SYMBOL current 48 -400 R180
WINDOW 0 24 80 Left 2
WINDOW 3 24 0 Left 2
WINDOW 123 0 0 Left 0
WINDOW 39 0 0 Left 0
SYMATTR InstName I1
SYMATTR Value 1m
SYMBOL res 224 -576 R90
WINDOW 0 0 56 VBottom 2
WINDOW 3 32 56 VTop 2
SYMATTR InstName R1
SYMATTR Value 3k
SYMBOL res 224 -336 R90
WINDOW 0 0 56 VBottom 2
WINDOW 3 32 56 VTop 2
SYMATTR InstName R2
SYMATTR Value 2k
SYMBOL opampIdeale 368 -448 R0
SYMATTR InstName X1
SYMBOL res 464 -576 R90
WINDOW 0 0 56 VBottom 2
WINDOW 3 32 56 VTop 2
SYMATTR InstName R3
SYMATTR Value 4k
SYMBOL res 464 -336 R90
WINDOW 0 0 56 VBottom 2
WINDOW 3 32 56 VTop 2
SYMATTR InstName R4
SYMATTR Value 1k
TEXT -14 -248 Left 2 !.tran 100u
