Version 4
SHEET 1 880 680
WIRE 64 48 -48 48
WIRE 160 48 144 48
WIRE 304 48 160 48
WIRE 400 48 384 48
WIRE 160 144 160 48
WIRE 208 144 160 144
WIRE 400 176 400 48
WIRE 208 208 160 208
WIRE -48 320 -48 48
WIRE 64 320 -48 320
WIRE 160 320 160 208
WIRE 160 320 144 320
WIRE 304 320 160 320
WIRE 400 320 400 176
WIRE 400 320 384 320
WIRE -48 352 -48 320
FLAG -48 352 0
SYMBOL res 160 32 R90
WINDOW 0 0 56 VBottom 2
WINDOW 3 32 56 VTop 2
SYMATTR InstName R1
SYMATTR Value 10k
SYMBOL res 160 304 R90
WINDOW 0 0 56 VBottom 2
WINDOW 3 32 56 VTop 2
SYMATTR InstName R2
SYMATTR Value 30k
SYMBOL res 400 304 R90
WINDOW 0 0 56 VBottom 2
WINDOW 3 32 56 VTop 2
SYMATTR InstName R3
SYMATTR Value 20k
SYMBOL voltage 400 48 R90
WINDOW 0 -32 56 VBottom 2
WINDOW 3 32 56 VTop 2
SYMATTR InstName V1
SYMATTR Value 4
SYMBOL opampIdeale 256 176 R0
SYMATTR InstName X1
TEXT 16 176 Left 2 !.tran 100u
