Version 4
SHEET 1 880 680
WIRE 224 -48 -48 -48
WIRE 224 16 224 -48
WIRE -48 64 -48 -48
WIRE 224 160 224 96
WIRE -48 272 -48 144
WIRE 80 272 -48 272
WIRE 224 272 224 240
WIRE 224 272 80 272
FLAG 80 272 0
SYMBOL voltage 224 144 R0
SYMATTR InstName VX
SYMATTR Value 1
SYMBOL current 224 96 R180
WINDOW 0 24 80 Left 2
WINDOW 3 24 0 Left 2
SYMATTR InstName I1
SYMATTR Value 1m
SYMBOL res -64 48 R0
SYMATTR InstName R1
SYMATTR Value 21k
TEXT -210 328 Left 2 !.op
