Version 4
SHEET 1 880 680
WIRE 384 16 96 16
WIRE 480 16 384 16
WIRE 480 32 480 16
WIRE 96 48 96 16
WIRE 384 48 384 16
WIRE 96 144 96 128
WIRE 384 144 384 128
WIRE 96 288 96 240
WIRE 240 288 96 288
WIRE 384 288 384 240
WIRE 384 288 240 288
WIRE 240 304 240 288
WIRE 240 400 240 384
FLAG 240 480 0
FLAG 48 224 0
FLAG 432 224 0
FLAG 480 112 0
SYMBOL nmos 48 144 R0
SYMATTR InstName M1
SYMBOL nmos 432 144 M0
SYMATTR InstName M2
SYMBOL res 224 288 R0
SYMATTR InstName RSS
SYMATTR Value 62k
SYMBOL voltage 240 384 R0
SYMATTR InstName VSS
SYMATTR Value -15
SYMBOL res 112 144 R180
WINDOW 0 36 76 Left 2
WINDOW 3 36 40 Left 2
SYMATTR InstName RD1
SYMATTR Value 62k
SYMBOL res 400 144 R180
WINDOW 0 36 76 Left 2
WINDOW 3 36 40 Left 2
SYMATTR InstName RD2
SYMATTR Value 62k
SYMBOL voltage 480 16 R0
SYMATTR InstName VDD
SYMATTR Value 15
TEXT -104 536 Left 2 !.model NMOS nmos level=1 VT0=1 kp=400u lambda=0 W=1 L=1
TEXT -96 568 Left 2 !.op
