Version 4
SHEET 1 880 680
WIRE 128 64 48 64
WIRE 240 64 208 64
WIRE 304 64 240 64
WIRE 320 64 304 64
WIRE 544 64 400 64
WIRE 240 96 240 64
WIRE 48 128 48 64
WIRE 304 144 304 64
WIRE 352 144 304 144
WIRE 544 176 544 64
WIRE 240 208 240 176
WIRE 352 208 304 208
WIRE 48 240 48 208
WIRE 112 304 48 304
WIRE 304 304 304 208
WIRE 304 304 192 304
WIRE 320 304 304 304
WIRE 544 304 544 176
WIRE 544 304 400 304
WIRE 48 352 48 304
FLAG 48 240 0
FLAG 240 208 0
FLAG 48 352 0
SYMBOL voltage 48 112 R0
SYMATTR InstName V1
SYMATTR Value 9
SYMBOL res 224 48 R90
WINDOW 0 0 56 VBottom 2
WINDOW 3 32 56 VTop 2
SYMATTR InstName R1
SYMATTR Value 50k
SYMBOL res 224 80 R0
SYMATTR InstName R2
SYMATTR Value (100/9)k
SYMBOL res 416 48 R90
WINDOW 0 0 56 VBottom 2
WINDOW 3 32 56 VTop 2
SYMATTR InstName R3
SYMATTR Value 20k
SYMBOL opampIdeale 400 176 R0
SYMATTR InstName X1
SYMBOL res 416 288 R90
WINDOW 0 0 56 VBottom 2
WINDOW 3 32 56 VTop 2
SYMATTR InstName R4
SYMATTR Value 40k
SYMBOL res 208 288 R90
WINDOW 0 0 56 VBottom 2
WINDOW 3 32 56 VTop 2
SYMATTR InstName R5
SYMATTR Value 10k
TEXT 208 384 Left 2 !;tran 100u
