Version 4
SHEET 1 880 680
WIRE 208 32 160 32
WIRE 304 32 288 32
WIRE 64 112 16 112
WIRE 160 112 160 32
WIRE 160 112 144 112
WIRE 192 112 160 112
WIRE 304 128 304 32
WIRE 304 128 256 128
WIRE 368 128 304 128
WIRE 192 144 160 144
WIRE 160 176 160 144
WIRE 16 192 16 112
WIRE 160 272 160 256
FLAG 16 192 0
FLAG 160 272 0
SYMBOL res 160 96 R90
WINDOW 0 0 56 VBottom 2
WINDOW 3 32 56 VTop 2
SYMATTR InstName R1
SYMATTR Value 15k
SYMBOL OpAmps\\opamp 224 64 R0
SYMATTR InstName U1
SYMBOL voltage 160 160 R0
SYMATTR InstName V1
SYMATTR Value -3.16
SYMBOL res 304 16 R90
WINDOW 0 0 56 VBottom 2
WINDOW 3 32 56 VTop 2
SYMATTR InstName R2
SYMATTR Value 10k
TEXT 304 168 Left 2 !.lib opamp.sub
TEXT 304 216 Left 2 !.op
