Version 4
SHEET 1 880 680
WIRE 32 48 -240 48
WIRE 160 48 112 48
WIRE 240 48 160 48
WIRE 352 48 320 48
WIRE 32 144 -176 144
WIRE 160 144 160 48
WIRE 160 144 112 144
WIRE 192 144 160 144
WIRE 352 160 352 48
WIRE 352 160 256 160
WIRE 400 160 352 160
WIRE 560 160 480 160
WIRE 192 176 160 176
WIRE 560 192 560 160
WIRE 32 224 -96 224
WIRE 160 224 160 176
WIRE 160 224 112 224
WIRE 32 304 -32 304
WIRE 160 304 160 224
WIRE 160 304 112 304
WIRE 160 352 160 304
WIRE 160 480 160 432
FLAG 160 480 0
FLAG -32 384 0
FLAG -96 304 0
FLAG -176 224 0
FLAG -240 128 0
FLAG 560 192 0
SYMBOL OpAmps\\opamp 224 96 R0
SYMATTR InstName U1
SYMBOL res 128 128 R90
WINDOW 0 0 56 VBottom 2
WINDOW 3 32 56 VTop 2
SYMATTR InstName R2
SYMATTR Value 25
SYMBOL res 128 32 R90
WINDOW 0 0 56 VBottom 2
WINDOW 3 32 56 VTop 2
SYMATTR InstName R1
SYMATTR Value 40
SYMBOL res 336 32 R90
WINDOW 0 0 56 VBottom 2
WINDOW 3 32 56 VTop 2
SYMATTR InstName R3
SYMATTR Value 50
SYMBOL res 128 208 R90
WINDOW 0 0 56 VBottom 2
WINDOW 3 32 56 VTop 2
SYMATTR InstName R4
SYMATTR Value 10
SYMBOL res 128 288 R90
WINDOW 0 0 56 VBottom 2
WINDOW 3 32 56 VTop 2
SYMATTR InstName R5
SYMATTR Value 20
SYMBOL res 144 336 R0
SYMATTR InstName R6
SYMATTR Value 30
SYMBOL voltage -32 288 R0
SYMATTR InstName V4
SYMATTR Value 5
SYMBOL voltage -96 208 R0
SYMATTR InstName V3
SYMATTR Value 3
SYMBOL voltage -176 128 R0
SYMATTR InstName V2
SYMATTR Value 2
SYMBOL voltage -240 32 R0
SYMATTR InstName V1
SYMATTR Value 1
SYMBOL res 496 144 R90
WINDOW 0 0 56 VBottom 2
WINDOW 3 32 56 VTop 2
SYMATTR InstName R7
SYMATTR Value 10
TEXT 368 392 Left 2 !.lib opamp.sub
TEXT 336 296 Left 2 !.op
