Version 4
SHEET 1 880 680
WIRE 64 32 16 32
WIRE 96 32 64 32
WIRE 128 32 96 32
WIRE 224 32 208 32
WIRE 272 32 224 32
WIRE 16 64 16 32
WIRE 224 96 224 32
WIRE 256 96 224 96
WIRE 352 112 352 32
WIRE 352 112 320 112
WIRE 384 112 352 112
WIRE 256 128 224 128
WIRE 64 144 64 32
WIRE 16 176 16 144
WIRE 96 192 96 32
WIRE 128 192 96 192
WIRE 224 192 224 128
WIRE 224 192 208 192
WIRE 272 192 224 192
WIRE 384 192 352 192
WIRE 384 208 384 192
FLAG 16 176 0
FLAG 384 208 0
FLAG 64 224 0
SYMBOL current 16 144 R180
WINDOW 0 24 80 Left 2
WINDOW 3 24 0 Left 2
SYMATTR InstName I1
SYMATTR Value 1m
SYMBOL res 224 176 R90
WINDOW 0 0 56 VBottom 2
WINDOW 3 32 56 VTop 2
SYMATTR InstName R2
SYMATTR Value 2k
SYMBOL res 368 176 R90
WINDOW 0 0 56 VBottom 2
WINDOW 3 32 56 VTop 2
SYMATTR InstName R1
SYMATTR Value 1k
SYMBOL res 224 16 R90
WINDOW 0 0 56 VBottom 2
WINDOW 3 32 56 VTop 2
SYMATTR InstName R3
SYMATTR Value 3k
SYMBOL res 368 16 R90
WINDOW 0 0 56 VBottom 2
WINDOW 3 32 56 VTop 2
SYMATTR InstName R4
SYMATTR Value 4k
SYMBOL OpAmps\\opamp 288 48 R0
SYMATTR InstName U1
SYMBOL res 48 128 R0
SYMATTR InstName R5
SYMATTR Value 5k
TEXT 392 8 Left 2 !.lib opamp.sub
TEXT 416 120 Left 2 !.op
