Version 4
SHEET 1 880 680
WIRE 240 -128 192 -128
WIRE 240 -112 240 -128
WIRE 192 -80 192 -128
WIRE 240 -80 192 -80
WIRE 128 0 64 0
WIRE 240 0 208 0
WIRE 272 0 240 0
WIRE 384 0 352 0
WIRE 64 80 64 0
WIRE 240 96 240 0
WIRE 272 96 240 96
WIRE 384 112 384 0
WIRE 384 112 336 112
WIRE 272 128 240 128
WIRE 64 224 64 160
WIRE 128 224 64 224
WIRE 240 224 240 128
WIRE 240 224 208 224
WIRE 272 224 240 224
WIRE 384 224 384 112
WIRE 384 224 352 224
WIRE 64 240 64 224
FLAG 64 240 0
FLAG 240 -112 0
SYMBOL voltage 64 64 R0
SYMATTR InstName Vs
SYMATTR Value 9
SYMBOL res 112 16 R270
WINDOW 0 32 56 VTop 2
WINDOW 3 0 56 VBottom 2
SYMATTR InstName R5
SYMATTR Value 50k
SYMBOL res 256 16 R270
WINDOW 0 32 56 VTop 2
WINDOW 3 0 56 VBottom 2
SYMATTR InstName R2
SYMATTR Value 20k
SYMBOL OpAmps\\opamp 304 48 R0
SYMATTR InstName U1
SYMBOL res 224 208 R90
WINDOW 0 0 56 VBottom 2
WINDOW 3 32 56 VTop 2
SYMATTR InstName R1
SYMATTR Value 10k
SYMBOL res 368 208 R90
WINDOW 0 0 56 VBottom 2
WINDOW 3 32 56 VTop 2
SYMATTR InstName R4
SYMATTR Value 40k
SYMBOL res 256 16 R180
WINDOW 0 36 76 Left 2
WINDOW 3 36 40 Left 2
SYMATTR InstName R3
SYMATTR Value 11.111k
TEXT -40 -48 Left 2 !.lib opamp.sub
TEXT 152 112 Left 2 !.op
