Version 4
SHEET 1 880 680
WIRE 192 16 96 16
WIRE 352 16 272 16
WIRE 0 96 -32 96
WIRE 96 96 96 16
WIRE 96 96 80 96
WIRE 128 96 96 96
WIRE 224 96 208 96
WIRE 256 96 224 96
WIRE 352 96 352 16
WIRE 352 96 336 96
WIRE 384 96 352 96
WIRE 480 96 464 96
WIRE -32 176 -32 96
WIRE 96 176 96 96
WIRE 112 176 96 176
WIRE 352 176 352 96
WIRE 368 176 352 176
WIRE 224 192 224 96
WIRE 224 192 176 192
WIRE 480 192 480 96
WIRE 480 192 432 192
WIRE 112 208 48 208
WIRE 368 208 304 208
WIRE 48 224 48 208
WIRE 304 224 304 208
WIRE 48 320 48 304
WIRE 304 320 304 304
FLAG -32 176 0
FLAG 48 320 0
FLAG 304 320 0
SYMBOL res 96 80 R90
WINDOW 0 0 56 VBottom 2
WINDOW 3 32 56 VTop 2
SYMATTR InstName R21
SYMATTR Value 21k
SYMBOL OpAmps\\opamp 144 128 R0
SYMATTR InstName U1
SYMBOL voltage 48 208 R0
SYMATTR InstName V1
SYMATTR Value 1
SYMBOL res 224 80 R90
WINDOW 0 0 56 VBottom 2
WINDOW 3 32 56 VTop 2
SYMATTR InstName R11
SYMATTR Value 11k
SYMBOL res 352 80 R90
WINDOW 0 0 56 VBottom 2
WINDOW 3 32 56 VTop 2
SYMATTR InstName R12
SYMATTR Value 11k
SYMBOL OpAmps\\opamp 400 128 R0
SYMATTR InstName U2
SYMBOL voltage 304 208 R0
SYMATTR InstName V2
SYMATTR Value 2
SYMBOL res 480 80 R90
WINDOW 0 0 56 VBottom 2
WINDOW 3 32 56 VTop 2
SYMATTR InstName R22
SYMATTR Value 21k
SYMBOL res 176 32 R270
WINDOW 0 32 56 VTop 2
WINDOW 3 0 56 VBottom 2
SYMATTR InstName R
SYMATTR Value 1k
TEXT 384 264 Left 2 !.lib opamp.sub
TEXT 384 296 Left 2 !.op
